LTspice 24.0.12 for Windows
Circuit: * C:\Users\Admin\Desktop\NOR GATE\CMOS_NOR_GATE.asc
Start Time: Tue Feb 11 14:43:43 2025
Ignoring BSIM parameter XL
Ignoring BSIM parameter XW
Ignoring BSIM parameter XL
Ignoring BSIM parameter XW
solver = Normal
Maximum thread count: 8
tnom = 27
temp = 27
method = modified trap
Warning: Pd = 0 is less than W.
Warning: Ps = 0 is less than W.
Warning: Pd = 0 is less than W.
Warning: Ps = 0 is less than W.
Direct Newton iteration for .op point succeeded.

tplh=8.07712e-11 FROM 1.7015e-09 TO 1.78227e-09
avg_delay: (tphl + tplh)/2=-6.92511e-10
tphl=-1.46579e-09 FROM 1.7015e-09 TO 2.35706e-10

Total elapsed time: 0.158 seconds.

