Circuit: * C:\Users\student\Downloads\static power calculation\nand gate propogation delay calculation M5 oN.asc

Ignoring BSIM parameter XL
Ignoring BSIM parameter XW
Ignoring BSIM parameter XL
Ignoring BSIM parameter XW
WARNING: Less than two connections to node b.  This node is used by v§b.
WARNING: Less than two connections to node d.  This node is used by v§d.
WARNING: Less than two connections to node c.  This node is used by v§c.
Warning: Pd = 0 is less than W.
Warning: Ps = 0 is less than W.
Warning: Pd = 0 is less than W.
Warning: Ps = 0 is less than W.
Direct Newton iteration for .op point succeeded.

tphl=3.30153e-11 FROM 4e-11 TO 7.30153e-11
tplh=3.55424e-10 FROM 1.14e-09 TO 1.49542e-09
avg_delay: (tphl +tplh)/2=1.94219e-10


Date: Tue Mar 11 11:58:30 2025
Total elapsed time: 0.271 seconds.

tnom = 27
temp = 27
method = modified trap
totiter = 2351
traniter = 2316
tranpoints = 1086
accept = 1026
rejected = 60
matrix size = 14
fillins = 0
solver = Normal
Avg thread counts: 3.9/3.5/3.5/2.2
Matrix Compiler1:      25 opcodes  0.1/[0.1]/0.1
Matrix Compiler2: off  [0.1]/0.2/0.2

