Circuit: * C:\Users\student\Downloads\static power calculation\nand gate static power calculation.asc

WARNING: Less than two connections to node b.  This node is used by v§b.
WARNING: Less than two connections to node d.  This node is used by v§d.
WARNING: Less than two connections to node c.  This node is used by v§c.
WARNING: Less than two connections to node a.  This node is used by v§a.
Instance "m1": Length shorter than recommended for a level 1 MOSFET.
Instance "m1": Width narrower than recommended for a level 1 MOSFET.
Instance "m2": Length shorter than recommended for a level 1 MOSFET.
Instance "m2": Width narrower than recommended for a level 1 MOSFET.
Instance "m3": Length shorter than recommended for a level 1 MOSFET.
Instance "m3": Width narrower than recommended for a level 1 MOSFET.
Instance "m4": Length shorter than recommended for a level 1 MOSFET.
Instance "m4": Width narrower than recommended for a level 1 MOSFET.
Instance "m5": Length shorter than recommended for a level 1 MOSFET.
Instance "m5": Width narrower than recommended for a level 1 MOSFET.
Direct Newton iteration for .op point succeeded.

Date: Tue Mar 11 11:00:28 2025
Total elapsed time: 0.081 seconds.

tnom = 27
temp = 27
method = modified trap
totiter = 1184
traniter = 1178
tranpoints = 590
accept = 574
rejected = 16
matrix size = 14
fillins = 0
solver = Normal
Avg thread counts: 3.3/5.1/5.2/3.3
Matrix Compiler1:      24 opcodes  0.1/[0.1]/0.1
Matrix Compiler2: 802 bytes object code size  0.1/0.2/[0.1]

