Circuit: * C:\Users\student\Downloads\static power calculation\nand gate propogation delay calculation M2 on.asc

Ignoring BSIM parameter XL
Ignoring BSIM parameter XW
Ignoring BSIM parameter XL
Ignoring BSIM parameter XW
WARNING: Less than two connections to node b.  This node is used by v§b.
WARNING: Less than two connections to node d.  This node is used by v§d.
WARNING: Less than two connections to node c.  This node is used by v§c.
Warning: Pd = 0 is less than W.
Warning: Ps = 0 is less than W.
Warning: Pd = 0 is less than W.
Warning: Ps = 0 is less than W.
Direct Newton iteration for .op point succeeded.

tphl=5.42591e-12 FROM 4e-11 TO 4.54259e-11
tplh=8.37483e-11 FROM 1.14e-09 TO 1.22375e-09
avg_delay: (tphl +tplh)/2=4.45871e-11


Date: Tue Mar 11 11:57:02 2025
Total elapsed time: 0.122 seconds.

tnom = 27
temp = 27
method = modified trap
totiter = 2485
traniter = 2468
tranpoints = 1085
accept = 1040
rejected = 45
matrix size = 14
fillins = 0
solver = Normal
Avg thread counts: 6.1/3.5/3.5/2.1
Matrix Compiler1: 438 bytes object code size  0.1/0.1/[0.1]
Matrix Compiler2: off  [0.1]/0.2/0.2

