LTspice 24.0.12 for Windows
Circuit: * E:\DVD Pratical\GITHUB FILE EXP2\EXP1 VTC_Resistive_Inverter_find_Slop.asc
Start Time: Mon Jan 20 21:43:19 2025
solver = Normal
Maximum thread count: 12



Instance "m1": Length shorter than recommended for a level 1 MOSFET.
Instance "m1": Width narrower than recommended for a level 1 MOSFET.
.step r=10000



.step r=50000
tnom = 27
temp = 27
method = modified trap
.step r=100000
Total elapsed time: 0.206 seconds.

