LTspice 24.0.12 for Windows
Circuit: * E:\DVD Pratical\GITHUB FILE EXP2\Exp1 VTC_Resistive_Inverter.TransientAnalysisPowerCalculationsATLOGIC1.asc
Start Time: Mon Jan 20 22:19:42 2025
solver = Normal
Maximum thread count: 12
tnom = 27
temp = 27
method = modified trap
Instance "m1": Length shorter than recommended for a level 1 MOSFET.
Instance "m1": Width narrower than recommended for a level 1 MOSFET.
Direct Newton iteration for .op point succeeded.
Total elapsed time: 0.146 seconds.

