LTspice 24.0.12 for Windows
Circuit: * E:\DVD Pratical\GITHUB FILE\EXP1 VTC_Resistive_Inverter.asc
Start Time: Sun Jan 19 20:19:39 2025
solver = Normal
Maximum thread count: 12
tnom = 27
temp = 27
method = modified trap
Instance "m1": Length shorter than recommended for a level 1 MOSFET.
Instance "m1": Width narrower than recommended for a level 1 MOSFET.
Total elapsed time: 0.059 seconds.

