LTspice 24.0.12 for Windows
Circuit: * C:\Users\Admin\Desktop\NAND GATE\CMOS_NAND_GATE.asc
Start Time: Tue Feb 11 14:17:13 2025
Ignoring BSIM parameter XL
Ignoring BSIM parameter XW
Ignoring BSIM parameter XL
Ignoring BSIM parameter XW
solver = Normal
Maximum thread count: 8
tnom = 27
temp = 27
method = modified trap
Warning: Pd = 0 is less than W.
Warning: Ps = 0 is less than W.
Warning: Pd = 0 is less than W.
Warning: Ps = 0 is less than W.
Direct Newton iteration for .op point succeeded.

tphl=5.85964e-11 FROM 2.005e-10 TO 2.59096e-10
tplh=3.85756e-11 FROM 1.7015e-09 TO 1.74008e-09
avg_delay: (tphl + tplh)/2=4.8586e-11

Total elapsed time: 0.174 seconds.

