Circuit: * C:\Users\student\Downloads\xnorgate\CMOS_XNOR_GATE.asc

Limiting rise time of source v§bbar to 1e-010
Limiting fall time of source v§bbar to 1e-010
Instance "m8": Length shorter than recommended for a level 1 MOSFET.
Instance "m8": Width narrower than recommended for a level 1 MOSFET.
Instance "m7": Length shorter than recommended for a level 1 MOSFET.
Instance "m7": Width narrower than recommended for a level 1 MOSFET.
Instance "m6": Length shorter than recommended for a level 1 MOSFET.
Instance "m6": Width narrower than recommended for a level 1 MOSFET.
Instance "m5": Length shorter than recommended for a level 1 MOSFET.
Instance "m5": Width narrower than recommended for a level 1 MOSFET.
Instance "m4": Length shorter than recommended for a level 1 MOSFET.
Instance "m4": Width narrower than recommended for a level 1 MOSFET.
Instance "m3": Length shorter than recommended for a level 1 MOSFET.
Instance "m3": Width narrower than recommended for a level 1 MOSFET.
Instance "m2": Length shorter than recommended for a level 1 MOSFET.
Instance "m2": Width narrower than recommended for a level 1 MOSFET.
Instance "m1": Length shorter than recommended for a level 1 MOSFET.
Instance "m1": Width narrower than recommended for a level 1 MOSFET.
Direct Newton iteration for .op point succeeded.

tphl=-2.11113e-011 FROM 5e-011 TO 2.88887e-011
tplh=-1.07633e-009 FROM 1.15e-009 TO 7.3667e-011
avg_delay: (tphl + tplh)/2=-5.48722e-010


Date: Thu Feb 20 16:01:43 2025
Total elapsed time: 0.050 seconds.

tnom = 27
temp = 27
method = modified trap
totiter = 2168
traniter = 2147
tranpoints = 731
accept = 678
rejected = 53
matrix size = 14
fillins = 0
solver = Normal
Matrix Compiler1: 582 bytes object code size  0.2/0.1/[0.1]
Matrix Compiler2: 1.31 KB object code size  0.1/0.1/[0.1]

